# created with PyMOL 2.5.5
@<TRIPOS>MOLECULE
7sj3
37 41 1                 
SMALL
USER_CHARGES
@<TRIPOS>ATOM
1	   N	10.533	-36.614	13.188	N.2	1	UNK0	0.000	
2	   C	12.000	-37.535	11.483	C.2	1	UNK0	0.000	
3	   C	5.674	-41.568	10.290	C.3	1	UNK0	0.000	
4	   N	14.993	-35.851	14.191	N.2	1	UNK0	0.000	
5	   C	14.277	-36.657	13.300	C.2	1	UNK0	0.000	
6	   N	5.516	-40.634	11.452	N.3	1	UNK0	0.000	
7	   C	5.968	-42.981	10.812	C.3	1	UNK0	0.000	
8	   N	14.827	-37.378	12.250	N.2	1	UNK0	0.000	
9	   C	16.173	-37.279	12.081	C.2	1	UNK0	0.000	
10	   C	16.964	-36.482	12.936	C.2	1	UNK0	0.000	
11	   C	16.317	-35.780	13.988	C.2	1	UNK0	0.000	
12	   N	12.897	-36.682	13.582	N.pl3	1	UNK0	0.000	
13	   C	11.783	-36.943	12.741	C.2	1	UNK0	0.000	
14	   C	10.915	-37.792	10.667	C.2	1	UNK0	0.000	
15	   C	9.633	-37.468	11.090	C.2	1	UNK0	0.000	
16	   C	9.500	-36.882	12.355	C.2	1	UNK0	0.000	
17	   C	8.454	-37.746	10.207	C.3	1	UNK0	0.000	
18	   C	16.679	-38.069	10.951	C.2	1	UNK0	0.000	
19	   C	15.760	-38.530	10.042	C.2	1	UNK0	0.000	
20	   C	16.238	-39.286	8.970	C.2	1	UNK0	0.000	
21	   C	17.616	-39.575	8.821	C.2	1	UNK0	0.000	
22	   C	18.519	-39.087	9.764	C.2	1	UNK0	0.000	
23	   C	18.053	-38.343	10.822	C.2	1	UNK0	0.000	
24	   N	15.612	-39.907	7.873	N.2	1	UNK0	0.000	
25	   C	16.643	-40.535	7.128	C.2	1	UNK0	0.000	
26	   N	17.857	-40.348	7.670	N.2	1	UNK0	0.000	
27	   C	16.398	-41.309	5.888	C.3	1	UNK0	0.000	
28	   C	14.177	-39.919	7.565	C.3	1	UNK0	0.000	
29	   C	13.626	-38.492	7.448	C.3	1	UNK0	0.000	
30	   C	13.420	-40.691	8.642	C.3	1	UNK0	0.000	
31	   N	7.410	-38.492	10.974	N.3	1	UNK0	0.000	
32	   C	6.182	-38.626	10.145	C.3	1	UNK0	0.000	
33	   C	5.070	-39.278	10.993	C.3	1	UNK0	0.000	
34	   C	6.795	-40.515	12.231	C.3	1	UNK0	0.000	
35	   C	7.886	-39.855	11.351	C.3	1	UNK0	0.000	
36	   F	18.269	-36.363	12.798	 F	1	UNK0	0.000	
37	   F	19.810	-39.349	9.638	 F	1	UNK0	0.000	
@<TRIPOS>BOND
1 1 13 ar
2 1 16 ar
3 2 13 ar
4 2 14 ar
5 3 6 1
6 3 7 1
7 4 5 ar
8 4 11 ar
9 5 8 ar
10 5 12 1
11 6 33 1
12 6 34 1
13 8 9 ar
14 9 10 ar
15 9 18 1
16 10 11 ar
17 10 36 1
18 12 13 1
19 14 15 ar
20 15 16 ar
21 15 17 1
22 17 31 1
23 18 19 ar
24 18 23 ar
25 19 20 ar
26 20 21 ar
27 20 24 ar
28 21 22 ar
29 21 26 ar
30 22 23 ar
31 22 37 1
32 24 25 ar
33 24 28 1
34 25 26 ar
35 25 27 1
36 28 29 1
37 28 30 1
38 31 32 1
39 31 35 1
40 32 33 1
41 34 35 1
@<TRIPOS>SUBSTRUCTURE
1	UNK0	1	GROUP	1 ****	UNK
