# created with PyMOL 2.5.5
@<TRIPOS>MOLECULE
obj01
35 42 1                 
SMALL
USER_CHARGES
@<TRIPOS>ATOM
1	  O4	-18.830	10.720	-5.630	O.3	1	STU1	0.000	
2	 C25	-19.582	9.518	-5.948	C.3	1	STU1	0.000	
3	 C24	-18.756	8.333	-6.435	C.3	1	STU1	0.000	
4	 C23	-17.314	8.769	-6.305	C.3	1	STU1	0.000	
5	 C22	-17.151	9.976	-7.229	C.3	1	STU1	0.000	
6	 C21	-17.855	11.178	-6.572	C.3	1	STU1	0.000	
7	 C26	-16.879	11.967	-5.709	C.3	1	STU1	0.000	
8	  N2	-18.492	12.109	-7.561	N.2	1	STU1	0.000	
9	 C18	-19.769	11.985	-7.980	C.2	1	STU1	0.000	
10	 C19	-20.744	11.034	-7.660	C.2	1	STU1	0.000	
11	  C6	-21.985	11.127	-8.235	C.2	1	STU1	0.000	
12	  C7	-22.203	12.175	-9.131	C.2	1	STU1	0.000	
13	 C10	-21.270	13.129	-9.471	C.2	1	STU1	0.000	
14	 C11	-19.999	13.016	-8.879	C.2	1	STU1	0.000	
15	 C12	-18.839	13.756	-8.973	C.2	1	STU1	0.000	
16	 C17	-17.869	13.191	-8.138	C.2	1	STU1	0.000	
17	 C16	-16.604	13.790	-8.091	C.2	1	STU1	0.000	
18	 C15	-16.342	14.928	-8.870	C.2	1	STU1	0.000	
19	 C14	-17.330	15.481	-9.695	C.2	1	STU1	0.000	
20	 C13	-18.601	14.895	-9.742	C.2	1	STU1	0.000	
21	  C9	-21.808	14.098	-10.435	C.2	1	STU1	0.000	
22	  N1	-23.209	13.658	-10.657	N.pl3	1	STU1	0.000	
23	  C8	-23.419	12.550	-9.888	C.2	1	STU1	0.000	
24	  O5	-24.538	11.920	-9.839	O.2	1	STU1	0.000	
25	  C5	-22.679	10.074	-7.713	C.2	1	STU1	0.000	
26	 C20	-21.904	9.336	-6.847	C.2	1	STU1	0.000	
27	  C1	-22.529	8.215	-6.233	C.2	1	STU1	0.000	
28	  C2	-23.883	7.865	-6.518	C.2	1	STU1	0.000	
29	  C3	-24.622	8.650	-7.425	C.2	1	STU1	0.000	
30	  C4	-23.806	9.542	-7.775	C.2	1	STU1	0.000	
31	  N3	-20.691	9.949	-6.828	N.2	1	STU1	0.000	
32	  O6	-17.726	9.656	-8.506	O.3	1	STU1	0.000	
33	 C27	-17.091	10.338	-9.582	C.3	1	STU1	0.000	
34	  N4	-16.421	7.647	-6.552	N.3	1	STU1	0.000	
35	 C28	-16.199	6.687	-5.480	C.3	1	STU1	0.000	
@<TRIPOS>BOND
1 1 2 1
2 1 6 1
3 2 3 1
4 2 31 1
5 3 4 1
6 4 5 1
7 4 34 1
8 5 6 1
9 5 32 1
10 6 7 1
11 6 8 1
12 8 9 ar
13 8 16 ar
14 9 10 ar
15 9 14 ar
16 10 11 ar
17 10 31 ar
18 11 12 ar
19 11 25 ar
20 12 13 ar
21 12 23 ar
22 13 14 ar
23 13 21 ar
24 14 15 ar
25 15 16 ar
26 15 20 ar
27 16 17 ar
28 17 18 ar
29 18 19 ar
30 19 20 ar
31 21 22 ar
32 22 23 ar
33 23 24 2
34 25 26 ar
35 25 30 ar
36 26 27 ar
37 26 31 ar
38 27 28 ar
39 28 29 ar
40 29 30 ar
41 32 33 1
42 34 35 1
@<TRIPOS>SUBSTRUCTURE
1	STU1	1	GROUP	1 A	STU
